* NGSPICE file created from user_analog_project_wrapper.ext - technology: sky130A

.subckt pad_2um_1_5 li_0_0# m1_0_0#
R0 li_0_0# li_0_0# sky130_fd_pr__res_generic_l1 w=800000u l=0u
.ends

.subckt power_pad_1_5 m5_0_0#
Xpad_2um_1_5_3018 li_0_0# m5_0_0# pad_2um_1_5
Xpad_2um_1_5_2317 li_0_0# m5_0_0# pad_2um_1_5
Xpad_2um_1_5_2328 li_0_0# m5_0_0# pad_2um_1_5
Xpad_2um_1_5_3029 li_0_0# m5_0_0# pad_2um_1_5
Xpad_2um_1_5_2306 li_0_0# m5_0_0# pad_2um_1_5
Xpad_2um_1_5_3007 li_0_0# m5_0_0# pad_2um_1_5
Xpad_2um_1_5_1649 li_0_0# m5_0_0# pad_2um_1_5
Xpad_2um_1_5_1616 li_0_0# m5_0_0# pad_2um_1_5
Xpad_2um_1_5_2339 li_0_0# m5_0_0# pad_2um_1_5
Xpad_2um_1_5_1638 li_0_0# m5_0_0# pad_2um_1_5
Xpad_2um_1_5_1627 li_0_0# m5_0_0# pad_2um_1_5
Xpad_2um_1_5_1605 li_0_0# m5_0_0# pad_2um_1_5
Xpad_2um_1_5_3574 li_0_0# m5_0_0# pad_2um_1_5
Xpad_2um_1_5_2873 li_0_0# m5_0_0# pad_2um_1_5
Xpad_2um_1_5_3596 li_0_0# m5_0_0# pad_2um_1_5
Xpad_2um_1_5_3541 li_0_0# m5_0_0# pad_2um_1_5
Xpad_2um_1_5_2840 li_0_0# m5_0_0# pad_2um_1_5
Xpad_2um_1_5_3563 li_0_0# m5_0_0# pad_2um_1_5
Xpad_2um_1_5_2862 li_0_0# m5_0_0# pad_2um_1_5
Xpad_2um_1_5_3585 li_0_0# m5_0_0# pad_2um_1_5
Xpad_2um_1_5_2851 li_0_0# m5_0_0# pad_2um_1_5
Xpad_2um_1_5_3552 li_0_0# m5_0_0# pad_2um_1_5
Xpad_2um_1_5_3530 li_0_0# m5_0_0# pad_2um_1_5
Xpad_2um_1_5_2884 li_0_0# m5_0_0# pad_2um_1_5
Xpad_2um_1_5_2895 li_0_0# m5_0_0# pad_2um_1_5
Xpad_2um_1_5_817 li_0_0# m5_0_0# pad_2um_1_5
Xpad_2um_1_5_839 li_0_0# m5_0_0# pad_2um_1_5
Xpad_2um_1_5_828 li_0_0# m5_0_0# pad_2um_1_5
Xpad_2um_1_5_806 li_0_0# m5_0_0# pad_2um_1_5
Xpad_2um_1_5_1424 li_0_0# m5_0_0# pad_2um_1_5
Xpad_2um_1_5_2147 li_0_0# m5_0_0# pad_2um_1_5
Xpad_2um_1_5_2169 li_0_0# m5_0_0# pad_2um_1_5
Xpad_2um_1_5_2114 li_0_0# m5_0_0# pad_2um_1_5
Xpad_2um_1_5_1413 li_0_0# m5_0_0# pad_2um_1_5
Xpad_2um_1_5_2136 li_0_0# m5_0_0# pad_2um_1_5
Xpad_2um_1_5_2125 li_0_0# m5_0_0# pad_2um_1_5
Xpad_2um_1_5_1402 li_0_0# m5_0_0# pad_2um_1_5
Xpad_2um_1_5_2103 li_0_0# m5_0_0# pad_2um_1_5
Xpad_2um_1_5_2158 li_0_0# m5_0_0# pad_2um_1_5
Xpad_2um_1_5_1446 li_0_0# m5_0_0# pad_2um_1_5
Xpad_2um_1_5_1468 li_0_0# m5_0_0# pad_2um_1_5
Xpad_2um_1_5_1435 li_0_0# m5_0_0# pad_2um_1_5
Xpad_2um_1_5_1479 li_0_0# m5_0_0# pad_2um_1_5
Xpad_2um_1_5_1457 li_0_0# m5_0_0# pad_2um_1_5
Xpad_2um_1_5_3371 li_0_0# m5_0_0# pad_2um_1_5
Xpad_2um_1_5_2670 li_0_0# m5_0_0# pad_2um_1_5
Xpad_2um_1_5_3393 li_0_0# m5_0_0# pad_2um_1_5
Xpad_2um_1_5_2692 li_0_0# m5_0_0# pad_2um_1_5
Xpad_2um_1_5_3360 li_0_0# m5_0_0# pad_2um_1_5
Xpad_2um_1_5_1980 li_0_0# m5_0_0# pad_2um_1_5
Xpad_2um_1_5_2681 li_0_0# m5_0_0# pad_2um_1_5
Xpad_2um_1_5_3382 li_0_0# m5_0_0# pad_2um_1_5
Xpad_2um_1_5_647 li_0_0# m5_0_0# pad_2um_1_5
Xpad_2um_1_5_669 li_0_0# m5_0_0# pad_2um_1_5
Xpad_2um_1_5_1991 li_0_0# m5_0_0# pad_2um_1_5
Xpad_2um_1_5_614 li_0_0# m5_0_0# pad_2um_1_5
Xpad_2um_1_5_636 li_0_0# m5_0_0# pad_2um_1_5
Xpad_2um_1_5_625 li_0_0# m5_0_0# pad_2um_1_5
Xpad_2um_1_5_603 li_0_0# m5_0_0# pad_2um_1_5
Xpad_2um_1_5_658 li_0_0# m5_0_0# pad_2um_1_5
Xpad_2um_1_5_1221 li_0_0# m5_0_0# pad_2um_1_5
Xpad_2um_1_5_1243 li_0_0# m5_0_0# pad_2um_1_5
Xpad_2um_1_5_1265 li_0_0# m5_0_0# pad_2um_1_5
Xpad_2um_1_5_1210 li_0_0# m5_0_0# pad_2um_1_5
Xpad_2um_1_5_1276 li_0_0# m5_0_0# pad_2um_1_5
Xpad_2um_1_5_1254 li_0_0# m5_0_0# pad_2um_1_5
Xpad_2um_1_5_1232 li_0_0# m5_0_0# pad_2um_1_5
Xpad_2um_1_5_1298 li_0_0# m5_0_0# pad_2um_1_5
Xpad_2um_1_5_1287 li_0_0# m5_0_0# pad_2um_1_5
Xpad_2um_1_5_3190 li_0_0# m5_0_0# pad_2um_1_5
Xpad_2um_1_5_499 li_0_0# m5_0_0# pad_2um_1_5
Xpad_2um_1_5_422 li_0_0# m5_0_0# pad_2um_1_5
Xpad_2um_1_5_444 li_0_0# m5_0_0# pad_2um_1_5
Xpad_2um_1_5_466 li_0_0# m5_0_0# pad_2um_1_5
Xpad_2um_1_5_488 li_0_0# m5_0_0# pad_2um_1_5
Xpad_2um_1_5_411 li_0_0# m5_0_0# pad_2um_1_5
Xpad_2um_1_5_477 li_0_0# m5_0_0# pad_2um_1_5
Xpad_2um_1_5_400 li_0_0# m5_0_0# pad_2um_1_5
Xpad_2um_1_5_455 li_0_0# m5_0_0# pad_2um_1_5
Xpad_2um_1_5_433 li_0_0# m5_0_0# pad_2um_1_5
Xpad_2um_1_5_1073 li_0_0# m5_0_0# pad_2um_1_5
Xpad_2um_1_5_1095 li_0_0# m5_0_0# pad_2um_1_5
Xpad_2um_1_5_1040 li_0_0# m5_0_0# pad_2um_1_5
Xpad_2um_1_5_1062 li_0_0# m5_0_0# pad_2um_1_5
Xpad_2um_1_5_1051 li_0_0# m5_0_0# pad_2um_1_5
Xpad_2um_1_5_1084 li_0_0# m5_0_0# pad_2um_1_5
Xpad_2um_1_5_4 li_0_0# m5_0_0# pad_2um_1_5
Xpad_2um_1_5_230 li_0_0# m5_0_0# pad_2um_1_5
Xpad_2um_1_5_274 li_0_0# m5_0_0# pad_2um_1_5
Xpad_2um_1_5_296 li_0_0# m5_0_0# pad_2um_1_5
Xpad_2um_1_5_241 li_0_0# m5_0_0# pad_2um_1_5
Xpad_2um_1_5_263 li_0_0# m5_0_0# pad_2um_1_5
Xpad_2um_1_5_252 li_0_0# m5_0_0# pad_2um_1_5
Xpad_2um_1_5_285 li_0_0# m5_0_0# pad_2um_1_5
Xpad_2um_1_5_1809 li_0_0# m5_0_0# pad_2um_1_5
Xpad_2um_1_5_3723 li_0_0# m5_0_0# pad_2um_1_5
Xpad_2um_1_5_3745 li_0_0# m5_0_0# pad_2um_1_5
Xpad_2um_1_5_3712 li_0_0# m5_0_0# pad_2um_1_5
Xpad_2um_1_5_3701 li_0_0# m5_0_0# pad_2um_1_5
Xpad_2um_1_5_3734 li_0_0# m5_0_0# pad_2um_1_5
Xpad_2um_1_5_3019 li_0_0# m5_0_0# pad_2um_1_5
Xpad_2um_1_5_2318 li_0_0# m5_0_0# pad_2um_1_5
Xpad_2um_1_5_1617 li_0_0# m5_0_0# pad_2um_1_5
Xpad_2um_1_5_2329 li_0_0# m5_0_0# pad_2um_1_5
Xpad_2um_1_5_1606 li_0_0# m5_0_0# pad_2um_1_5
Xpad_2um_1_5_2307 li_0_0# m5_0_0# pad_2um_1_5
Xpad_2um_1_5_3008 li_0_0# m5_0_0# pad_2um_1_5
Xpad_2um_1_5_1639 li_0_0# m5_0_0# pad_2um_1_5
Xpad_2um_1_5_1628 li_0_0# m5_0_0# pad_2um_1_5
Xpad_2um_1_5_2874 li_0_0# m5_0_0# pad_2um_1_5
Xpad_2um_1_5_3597 li_0_0# m5_0_0# pad_2um_1_5
Xpad_2um_1_5_3520 li_0_0# m5_0_0# pad_2um_1_5
Xpad_2um_1_5_2896 li_0_0# m5_0_0# pad_2um_1_5
Xpad_2um_1_5_3542 li_0_0# m5_0_0# pad_2um_1_5
Xpad_2um_1_5_2841 li_0_0# m5_0_0# pad_2um_1_5
Xpad_2um_1_5_3564 li_0_0# m5_0_0# pad_2um_1_5
Xpad_2um_1_5_2863 li_0_0# m5_0_0# pad_2um_1_5
Xpad_2um_1_5_3586 li_0_0# m5_0_0# pad_2um_1_5
Xpad_2um_1_5_2885 li_0_0# m5_0_0# pad_2um_1_5
Xpad_2um_1_5_3575 li_0_0# m5_0_0# pad_2um_1_5
Xpad_2um_1_5_2852 li_0_0# m5_0_0# pad_2um_1_5
Xpad_2um_1_5_3553 li_0_0# m5_0_0# pad_2um_1_5
Xpad_2um_1_5_2830 li_0_0# m5_0_0# pad_2um_1_5
Xpad_2um_1_5_3531 li_0_0# m5_0_0# pad_2um_1_5
Xpad_2um_1_5_818 li_0_0# m5_0_0# pad_2um_1_5
Xpad_2um_1_5_829 li_0_0# m5_0_0# pad_2um_1_5
Xpad_2um_1_5_807 li_0_0# m5_0_0# pad_2um_1_5
Xpad_2um_1_5_2148 li_0_0# m5_0_0# pad_2um_1_5
Xpad_2um_1_5_1447 li_0_0# m5_0_0# pad_2um_1_5
Xpad_2um_1_5_2115 li_0_0# m5_0_0# pad_2um_1_5
Xpad_2um_1_5_1414 li_0_0# m5_0_0# pad_2um_1_5
Xpad_2um_1_5_2137 li_0_0# m5_0_0# pad_2um_1_5
Xpad_2um_1_5_1436 li_0_0# m5_0_0# pad_2um_1_5
Xpad_2um_1_5_2126 li_0_0# m5_0_0# pad_2um_1_5
Xpad_2um_1_5_1425 li_0_0# m5_0_0# pad_2um_1_5
Xpad_2um_1_5_1403 li_0_0# m5_0_0# pad_2um_1_5
Xpad_2um_1_5_2104 li_0_0# m5_0_0# pad_2um_1_5
Xpad_2um_1_5_1458 li_0_0# m5_0_0# pad_2um_1_5
Xpad_2um_1_5_2159 li_0_0# m5_0_0# pad_2um_1_5
Xpad_2um_1_5_1469 li_0_0# m5_0_0# pad_2um_1_5
Xpad_2um_1_5_3361 li_0_0# m5_0_0# pad_2um_1_5
Xpad_2um_1_5_3350 li_0_0# m5_0_0# pad_2um_1_5
Xpad_2um_1_5_3372 li_0_0# m5_0_0# pad_2um_1_5
Xpad_2um_1_5_2671 li_0_0# m5_0_0# pad_2um_1_5
Xpad_2um_1_5_1970 li_0_0# m5_0_0# pad_2um_1_5
Xpad_2um_1_5_3394 li_0_0# m5_0_0# pad_2um_1_5
Xpad_2um_1_5_2693 li_0_0# m5_0_0# pad_2um_1_5
Xpad_2um_1_5_1992 li_0_0# m5_0_0# pad_2um_1_5
Xpad_2um_1_5_2660 li_0_0# m5_0_0# pad_2um_1_5
Xpad_2um_1_5_1981 li_0_0# m5_0_0# pad_2um_1_5
Xpad_2um_1_5_2682 li_0_0# m5_0_0# pad_2um_1_5
Xpad_2um_1_5_3383 li_0_0# m5_0_0# pad_2um_1_5
Xpad_2um_1_5_648 li_0_0# m5_0_0# pad_2um_1_5
Xpad_2um_1_5_615 li_0_0# m5_0_0# pad_2um_1_5
Xpad_2um_1_5_637 li_0_0# m5_0_0# pad_2um_1_5
Xpad_2um_1_5_626 li_0_0# m5_0_0# pad_2um_1_5
Xpad_2um_1_5_604 li_0_0# m5_0_0# pad_2um_1_5
Xpad_2um_1_5_659 li_0_0# m5_0_0# pad_2um_1_5
Xpad_2um_1_5_1299 li_0_0# m5_0_0# pad_2um_1_5
Xpad_2um_1_5_1222 li_0_0# m5_0_0# pad_2um_1_5
Xpad_2um_1_5_1244 li_0_0# m5_0_0# pad_2um_1_5
Xpad_2um_1_5_1266 li_0_0# m5_0_0# pad_2um_1_5
Xpad_2um_1_5_1288 li_0_0# m5_0_0# pad_2um_1_5
Xpad_2um_1_5_1211 li_0_0# m5_0_0# pad_2um_1_5
Xpad_2um_1_5_1277 li_0_0# m5_0_0# pad_2um_1_5
Xpad_2um_1_5_1200 li_0_0# m5_0_0# pad_2um_1_5
Xpad_2um_1_5_1255 li_0_0# m5_0_0# pad_2um_1_5
Xpad_2um_1_5_1233 li_0_0# m5_0_0# pad_2um_1_5
Xpad_2um_1_5_3191 li_0_0# m5_0_0# pad_2um_1_5
Xpad_2um_1_5_3180 li_0_0# m5_0_0# pad_2um_1_5
Xpad_2um_1_5_2490 li_0_0# m5_0_0# pad_2um_1_5
Xpad_2um_1_5_412 li_0_0# m5_0_0# pad_2um_1_5
Xpad_2um_1_5_401 li_0_0# m5_0_0# pad_2um_1_5
Xpad_2um_1_5_423 li_0_0# m5_0_0# pad_2um_1_5
Xpad_2um_1_5_445 li_0_0# m5_0_0# pad_2um_1_5
Xpad_2um_1_5_467 li_0_0# m5_0_0# pad_2um_1_5
Xpad_2um_1_5_489 li_0_0# m5_0_0# pad_2um_1_5
Xpad_2um_1_5_478 li_0_0# m5_0_0# pad_2um_1_5
Xpad_2um_1_5_456 li_0_0# m5_0_0# pad_2um_1_5
Xpad_2um_1_5_434 li_0_0# m5_0_0# pad_2um_1_5
Xpad_2um_1_5_990 li_0_0# m5_0_0# pad_2um_1_5
Xpad_2um_1_5_1074 li_0_0# m5_0_0# pad_2um_1_5
Xpad_2um_1_5_1096 li_0_0# m5_0_0# pad_2um_1_5
Xpad_2um_1_5_1041 li_0_0# m5_0_0# pad_2um_1_5
Xpad_2um_1_5_1063 li_0_0# m5_0_0# pad_2um_1_5
Xpad_2um_1_5_1085 li_0_0# m5_0_0# pad_2um_1_5
Xpad_2um_1_5_1052 li_0_0# m5_0_0# pad_2um_1_5
Xpad_2um_1_5_1030 li_0_0# m5_0_0# pad_2um_1_5
Xpad_2um_1_5_220 li_0_0# m5_0_0# pad_2um_1_5
Xpad_2um_1_5_242 li_0_0# m5_0_0# pad_2um_1_5
Xpad_2um_1_5_264 li_0_0# m5_0_0# pad_2um_1_5
Xpad_2um_1_5_253 li_0_0# m5_0_0# pad_2um_1_5
Xpad_2um_1_5_5 li_0_0# m5_0_0# pad_2um_1_5
Xpad_2um_1_5_231 li_0_0# m5_0_0# pad_2um_1_5
Xpad_2um_1_5_297 li_0_0# m5_0_0# pad_2um_1_5
Xpad_2um_1_5_286 li_0_0# m5_0_0# pad_2um_1_5
Xpad_2um_1_5_275 li_0_0# m5_0_0# pad_2um_1_5
Xpad_2um_1_5_3724 li_0_0# m5_0_0# pad_2um_1_5
Xpad_2um_1_5_3746 li_0_0# m5_0_0# pad_2um_1_5
Xpad_2um_1_5_3713 li_0_0# m5_0_0# pad_2um_1_5
Xpad_2um_1_5_3735 li_0_0# m5_0_0# pad_2um_1_5
Xpad_2um_1_5_3702 li_0_0# m5_0_0# pad_2um_1_5
Xpad_2um_1_5_2319 li_0_0# m5_0_0# pad_2um_1_5
Xpad_2um_1_5_1618 li_0_0# m5_0_0# pad_2um_1_5
Xpad_2um_1_5_1629 li_0_0# m5_0_0# pad_2um_1_5
Xpad_2um_1_5_1607 li_0_0# m5_0_0# pad_2um_1_5
Xpad_2um_1_5_2308 li_0_0# m5_0_0# pad_2um_1_5
Xpad_2um_1_5_3009 li_0_0# m5_0_0# pad_2um_1_5
Xpad_2um_1_5_3521 li_0_0# m5_0_0# pad_2um_1_5
Xpad_2um_1_5_3543 li_0_0# m5_0_0# pad_2um_1_5
Xpad_2um_1_5_3510 li_0_0# m5_0_0# pad_2um_1_5
Xpad_2um_1_5_3532 li_0_0# m5_0_0# pad_2um_1_5
Xpad_2um_1_5_3598 li_0_0# m5_0_0# pad_2um_1_5
Xpad_2um_1_5_2897 li_0_0# m5_0_0# pad_2um_1_5
Xpad_2um_1_5_2820 li_0_0# m5_0_0# pad_2um_1_5
Xpad_2um_1_5_2842 li_0_0# m5_0_0# pad_2um_1_5
Xpad_2um_1_5_3565 li_0_0# m5_0_0# pad_2um_1_5
Xpad_2um_1_5_2864 li_0_0# m5_0_0# pad_2um_1_5
Xpad_2um_1_5_3587 li_0_0# m5_0_0# pad_2um_1_5
Xpad_2um_1_5_2886 li_0_0# m5_0_0# pad_2um_1_5
Xpad_2um_1_5_3576 li_0_0# m5_0_0# pad_2um_1_5
Xpad_2um_1_5_2875 li_0_0# m5_0_0# pad_2um_1_5
Xpad_2um_1_5_2853 li_0_0# m5_0_0# pad_2um_1_5
Xpad_2um_1_5_3554 li_0_0# m5_0_0# pad_2um_1_5
Xpad_2um_1_5_2831 li_0_0# m5_0_0# pad_2um_1_5
Xpad_2um_1_5_819 li_0_0# m5_0_0# pad_2um_1_5
Xpad_2um_1_5_808 li_0_0# m5_0_0# pad_2um_1_5
Xpad_2um_1_5_2149 li_0_0# m5_0_0# pad_2um_1_5
Xpad_2um_1_5_1448 li_0_0# m5_0_0# pad_2um_1_5
Xpad_2um_1_5_2116 li_0_0# m5_0_0# pad_2um_1_5
Xpad_2um_1_5_1415 li_0_0# m5_0_0# pad_2um_1_5
Xpad_2um_1_5_2138 li_0_0# m5_0_0# pad_2um_1_5
Xpad_2um_1_5_1437 li_0_0# m5_0_0# pad_2um_1_5
Xpad_2um_1_5_2127 li_0_0# m5_0_0# pad_2um_1_5
Xpad_2um_1_5_1426 li_0_0# m5_0_0# pad_2um_1_5
Xpad_2um_1_5_1404 li_0_0# m5_0_0# pad_2um_1_5
Xpad_2um_1_5_2105 li_0_0# m5_0_0# pad_2um_1_5
Xpad_2um_1_5_1459 li_0_0# m5_0_0# pad_2um_1_5
Xpad_2um_1_5_3373 li_0_0# m5_0_0# pad_2um_1_5
Xpad_2um_1_5_3340 li_0_0# m5_0_0# pad_2um_1_5
Xpad_2um_1_5_3362 li_0_0# m5_0_0# pad_2um_1_5
Xpad_2um_1_5_3351 li_0_0# m5_0_0# pad_2um_1_5
Xpad_2um_1_5_2650 li_0_0# m5_0_0# pad_2um_1_5
Xpad_2um_1_5_3384 li_0_0# m5_0_0# pad_2um_1_5
Xpad_2um_1_5_2672 li_0_0# m5_0_0# pad_2um_1_5
Xpad_2um_1_5_1971 li_0_0# m5_0_0# pad_2um_1_5
Xpad_2um_1_5_3395 li_0_0# m5_0_0# pad_2um_1_5
Xpad_2um_1_5_2694 li_0_0# m5_0_0# pad_2um_1_5
Xpad_2um_1_5_1993 li_0_0# m5_0_0# pad_2um_1_5
Xpad_2um_1_5_2661 li_0_0# m5_0_0# pad_2um_1_5
Xpad_2um_1_5_1960 li_0_0# m5_0_0# pad_2um_1_5
Xpad_2um_1_5_605 li_0_0# m5_0_0# pad_2um_1_5
Xpad_2um_1_5_1982 li_0_0# m5_0_0# pad_2um_1_5
Xpad_2um_1_5_2683 li_0_0# m5_0_0# pad_2um_1_5
Xpad_2um_1_5_649 li_0_0# m5_0_0# pad_2um_1_5
Xpad_2um_1_5_616 li_0_0# m5_0_0# pad_2um_1_5
Xpad_2um_1_5_638 li_0_0# m5_0_0# pad_2um_1_5
Xpad_2um_1_5_627 li_0_0# m5_0_0# pad_2um_1_5
Xpad_2um_1_5_1223 li_0_0# m5_0_0# pad_2um_1_5
Xpad_2um_1_5_1245 li_0_0# m5_0_0# pad_2um_1_5
Xpad_2um_1_5_1267 li_0_0# m5_0_0# pad_2um_1_5
Xpad_2um_1_5_1289 li_0_0# m5_0_0# pad_2um_1_5
Xpad_2um_1_5_1212 li_0_0# m5_0_0# pad_2um_1_5
Xpad_2um_1_5_1201 li_0_0# m5_0_0# pad_2um_1_5
Xpad_2um_1_5_1278 li_0_0# m5_0_0# pad_2um_1_5
Xpad_2um_1_5_1256 li_0_0# m5_0_0# pad_2um_1_5
Xpad_2um_1_5_1234 li_0_0# m5_0_0# pad_2um_1_5
Xpad_2um_1_5_3170 li_0_0# m5_0_0# pad_2um_1_5
Xpad_2um_1_5_3192 li_0_0# m5_0_0# pad_2um_1_5
Xpad_2um_1_5_2491 li_0_0# m5_0_0# pad_2um_1_5
Xpad_2um_1_5_2480 li_0_0# m5_0_0# pad_2um_1_5
Xpad_2um_1_5_3181 li_0_0# m5_0_0# pad_2um_1_5
Xpad_2um_1_5_424 li_0_0# m5_0_0# pad_2um_1_5
Xpad_2um_1_5_446 li_0_0# m5_0_0# pad_2um_1_5
Xpad_2um_1_5_1790 li_0_0# m5_0_0# pad_2um_1_5
Xpad_2um_1_5_413 li_0_0# m5_0_0# pad_2um_1_5
Xpad_2um_1_5_402 li_0_0# m5_0_0# pad_2um_1_5
Xpad_2um_1_5_435 li_0_0# m5_0_0# pad_2um_1_5
Xpad_2um_1_5_468 li_0_0# m5_0_0# pad_2um_1_5
Xpad_2um_1_5_479 li_0_0# m5_0_0# pad_2um_1_5
Xpad_2um_1_5_457 li_0_0# m5_0_0# pad_2um_1_5
Xpad_2um_1_5_991 li_0_0# m5_0_0# pad_2um_1_5
Xpad_2um_1_5_980 li_0_0# m5_0_0# pad_2um_1_5
Xpad_2um_1_5_1020 li_0_0# m5_0_0# pad_2um_1_5
Xpad_2um_1_5_1042 li_0_0# m5_0_0# pad_2um_1_5
Xpad_2um_1_5_1031 li_0_0# m5_0_0# pad_2um_1_5
Xpad_2um_1_5_1097 li_0_0# m5_0_0# pad_2um_1_5
Xpad_2um_1_5_1064 li_0_0# m5_0_0# pad_2um_1_5
Xpad_2um_1_5_1086 li_0_0# m5_0_0# pad_2um_1_5
Xpad_2um_1_5_1075 li_0_0# m5_0_0# pad_2um_1_5
Xpad_2um_1_5_1053 li_0_0# m5_0_0# pad_2um_1_5
Xpad_2um_1_5_298 li_0_0# m5_0_0# pad_2um_1_5
Xpad_2um_1_5_221 li_0_0# m5_0_0# pad_2um_1_5
Xpad_2um_1_5_243 li_0_0# m5_0_0# pad_2um_1_5
Xpad_2um_1_5_265 li_0_0# m5_0_0# pad_2um_1_5
Xpad_2um_1_5_287 li_0_0# m5_0_0# pad_2um_1_5
Xpad_2um_1_5_276 li_0_0# m5_0_0# pad_2um_1_5
Xpad_2um_1_5_254 li_0_0# m5_0_0# pad_2um_1_5
Xpad_2um_1_5_6 li_0_0# m5_0_0# pad_2um_1_5
Xpad_2um_1_5_232 li_0_0# m5_0_0# pad_2um_1_5
Xpad_2um_1_5_210 li_0_0# m5_0_0# pad_2um_1_5
Xpad_2um_1_5_3714 li_0_0# m5_0_0# pad_2um_1_5
Xpad_2um_1_5_3725 li_0_0# m5_0_0# pad_2um_1_5
Xpad_2um_1_5_3703 li_0_0# m5_0_0# pad_2um_1_5
Xpad_2um_1_5_3747 li_0_0# m5_0_0# pad_2um_1_5
Xpad_2um_1_5_3736 li_0_0# m5_0_0# pad_2um_1_5
Xpad_2um_1_5_1619 li_0_0# m5_0_0# pad_2um_1_5
Xpad_2um_1_5_1608 li_0_0# m5_0_0# pad_2um_1_5
Xpad_2um_1_5_2309 li_0_0# m5_0_0# pad_2um_1_5
Xpad_2um_1_5_3522 li_0_0# m5_0_0# pad_2um_1_5
Xpad_2um_1_5_2821 li_0_0# m5_0_0# pad_2um_1_5
Xpad_2um_1_5_3544 li_0_0# m5_0_0# pad_2um_1_5
Xpad_2um_1_5_3566 li_0_0# m5_0_0# pad_2um_1_5
Xpad_2um_1_5_3511 li_0_0# m5_0_0# pad_2um_1_5
Xpad_2um_1_5_2810 li_0_0# m5_0_0# pad_2um_1_5
Xpad_2um_1_5_3577 li_0_0# m5_0_0# pad_2um_1_5
Xpad_2um_1_5_3500 li_0_0# m5_0_0# pad_2um_1_5
Xpad_2um_1_5_3555 li_0_0# m5_0_0# pad_2um_1_5
Xpad_2um_1_5_2832 li_0_0# m5_0_0# pad_2um_1_5
Xpad_2um_1_5_3533 li_0_0# m5_0_0# pad_2um_1_5
Xpad_2um_1_5_3599 li_0_0# m5_0_0# pad_2um_1_5
Xpad_2um_1_5_2898 li_0_0# m5_0_0# pad_2um_1_5
Xpad_2um_1_5_2843 li_0_0# m5_0_0# pad_2um_1_5
Xpad_2um_1_5_2865 li_0_0# m5_0_0# pad_2um_1_5
Xpad_2um_1_5_3588 li_0_0# m5_0_0# pad_2um_1_5
Xpad_2um_1_5_2887 li_0_0# m5_0_0# pad_2um_1_5
Xpad_2um_1_5_2876 li_0_0# m5_0_0# pad_2um_1_5
Xpad_2um_1_5_2854 li_0_0# m5_0_0# pad_2um_1_5
Xpad_2um_1_5_809 li_0_0# m5_0_0# pad_2um_1_5
Xpad_2um_1_5_2117 li_0_0# m5_0_0# pad_2um_1_5
Xpad_2um_1_5_2106 li_0_0# m5_0_0# pad_2um_1_5
Xpad_2um_1_5_1449 li_0_0# m5_0_0# pad_2um_1_5
Xpad_2um_1_5_1416 li_0_0# m5_0_0# pad_2um_1_5
Xpad_2um_1_5_2139 li_0_0# m5_0_0# pad_2um_1_5
Xpad_2um_1_5_1438 li_0_0# m5_0_0# pad_2um_1_5
Xpad_2um_1_5_1427 li_0_0# m5_0_0# pad_2um_1_5
Xpad_2um_1_5_2128 li_0_0# m5_0_0# pad_2um_1_5
Xpad_2um_1_5_1405 li_0_0# m5_0_0# pad_2um_1_5
Xpad_2um_1_5_3374 li_0_0# m5_0_0# pad_2um_1_5
Xpad_2um_1_5_2673 li_0_0# m5_0_0# pad_2um_1_5
Xpad_2um_1_5_3396 li_0_0# m5_0_0# pad_2um_1_5
Xpad_2um_1_5_3341 li_0_0# m5_0_0# pad_2um_1_5
Xpad_2um_1_5_2640 li_0_0# m5_0_0# pad_2um_1_5
Xpad_2um_1_5_3363 li_0_0# m5_0_0# pad_2um_1_5
Xpad_2um_1_5_2662 li_0_0# m5_0_0# pad_2um_1_5
Xpad_2um_1_5_3385 li_0_0# m5_0_0# pad_2um_1_5
Xpad_2um_1_5_2651 li_0_0# m5_0_0# pad_2um_1_5
Xpad_2um_1_5_3352 li_0_0# m5_0_0# pad_2um_1_5
Xpad_2um_1_5_3330 li_0_0# m5_0_0# pad_2um_1_5
Xpad_2um_1_5_1972 li_0_0# m5_0_0# pad_2um_1_5
Xpad_2um_1_5_2695 li_0_0# m5_0_0# pad_2um_1_5
Xpad_2um_1_5_1994 li_0_0# m5_0_0# pad_2um_1_5
Xpad_2um_1_5_617 li_0_0# m5_0_0# pad_2um_1_5
Xpad_2um_1_5_1961 li_0_0# m5_0_0# pad_2um_1_5
Xpad_2um_1_5_1950 li_0_0# m5_0_0# pad_2um_1_5
Xpad_2um_1_5_628 li_0_0# m5_0_0# pad_2um_1_5
Xpad_2um_1_5_606 li_0_0# m5_0_0# pad_2um_1_5
Xpad_2um_1_5_1983 li_0_0# m5_0_0# pad_2um_1_5
Xpad_2um_1_5_2684 li_0_0# m5_0_0# pad_2um_1_5
Xpad_2um_1_5_639 li_0_0# m5_0_0# pad_2um_1_5
Xpad_2um_1_5_1224 li_0_0# m5_0_0# pad_2um_1_5
Xpad_2um_1_5_1213 li_0_0# m5_0_0# pad_2um_1_5
Xpad_2um_1_5_1202 li_0_0# m5_0_0# pad_2um_1_5
Xpad_2um_1_5_1246 li_0_0# m5_0_0# pad_2um_1_5
Xpad_2um_1_5_1268 li_0_0# m5_0_0# pad_2um_1_5
Xpad_2um_1_5_1235 li_0_0# m5_0_0# pad_2um_1_5
Xpad_2um_1_5_1279 li_0_0# m5_0_0# pad_2um_1_5
Xpad_2um_1_5_1257 li_0_0# m5_0_0# pad_2um_1_5
Xpad_2um_1_5_3171 li_0_0# m5_0_0# pad_2um_1_5
Xpad_2um_1_5_2470 li_0_0# m5_0_0# pad_2um_1_5
Xpad_2um_1_5_3193 li_0_0# m5_0_0# pad_2um_1_5
Xpad_2um_1_5_2492 li_0_0# m5_0_0# pad_2um_1_5
Xpad_2um_1_5_3160 li_0_0# m5_0_0# pad_2um_1_5
Xpad_2um_1_5_1780 li_0_0# m5_0_0# pad_2um_1_5
Xpad_2um_1_5_2481 li_0_0# m5_0_0# pad_2um_1_5
Xpad_2um_1_5_3182 li_0_0# m5_0_0# pad_2um_1_5
Xpad_2um_1_5_447 li_0_0# m5_0_0# pad_2um_1_5
Xpad_2um_1_5_469 li_0_0# m5_0_0# pad_2um_1_5
Xpad_2um_1_5_1791 li_0_0# m5_0_0# pad_2um_1_5
Xpad_2um_1_5_414 li_0_0# m5_0_0# pad_2um_1_5
Xpad_2um_1_5_436 li_0_0# m5_0_0# pad_2um_1_5
Xpad_2um_1_5_425 li_0_0# m5_0_0# pad_2um_1_5
Xpad_2um_1_5_403 li_0_0# m5_0_0# pad_2um_1_5
Xpad_2um_1_5_458 li_0_0# m5_0_0# pad_2um_1_5
Xpad_2um_1_5_970 li_0_0# m5_0_0# pad_2um_1_5
Xpad_2um_1_5_992 li_0_0# m5_0_0# pad_2um_1_5
Xpad_2um_1_5_981 li_0_0# m5_0_0# pad_2um_1_5
Xpad_2um_1_5_1021 li_0_0# m5_0_0# pad_2um_1_5
Xpad_2um_1_5_1043 li_0_0# m5_0_0# pad_2um_1_5
Xpad_2um_1_5_1065 li_0_0# m5_0_0# pad_2um_1_5
Xpad_2um_1_5_1010 li_0_0# m5_0_0# pad_2um_1_5
Xpad_2um_1_5_1076 li_0_0# m5_0_0# pad_2um_1_5
Xpad_2um_1_5_1054 li_0_0# m5_0_0# pad_2um_1_5
Xpad_2um_1_5_1032 li_0_0# m5_0_0# pad_2um_1_5
Xpad_2um_1_5_1098 li_0_0# m5_0_0# pad_2um_1_5
Xpad_2um_1_5_1087 li_0_0# m5_0_0# pad_2um_1_5
Xpad_2um_1_5_7 li_0_0# m5_0_0# pad_2um_1_5
Xpad_2um_1_5_299 li_0_0# m5_0_0# pad_2um_1_5
Xpad_2um_1_5_222 li_0_0# m5_0_0# pad_2um_1_5
Xpad_2um_1_5_244 li_0_0# m5_0_0# pad_2um_1_5
Xpad_2um_1_5_266 li_0_0# m5_0_0# pad_2um_1_5
Xpad_2um_1_5_288 li_0_0# m5_0_0# pad_2um_1_5
Xpad_2um_1_5_211 li_0_0# m5_0_0# pad_2um_1_5
Xpad_2um_1_5_277 li_0_0# m5_0_0# pad_2um_1_5
Xpad_2um_1_5_200 li_0_0# m5_0_0# pad_2um_1_5
Xpad_2um_1_5_255 li_0_0# m5_0_0# pad_2um_1_5
Xpad_2um_1_5_233 li_0_0# m5_0_0# pad_2um_1_5
Xpad_2um_1_5_3748 li_0_0# m5_0_0# pad_2um_1_5
Xpad_2um_1_5_3715 li_0_0# m5_0_0# pad_2um_1_5
Xpad_2um_1_5_3737 li_0_0# m5_0_0# pad_2um_1_5
Xpad_2um_1_5_3726 li_0_0# m5_0_0# pad_2um_1_5
Xpad_2um_1_5_3704 li_0_0# m5_0_0# pad_2um_1_5
Xpad_2um_1_5_1609 li_0_0# m5_0_0# pad_2um_1_5
Xpad_2um_1_5_3523 li_0_0# m5_0_0# pad_2um_1_5
Xpad_2um_1_5_2822 li_0_0# m5_0_0# pad_2um_1_5
Xpad_2um_1_5_3545 li_0_0# m5_0_0# pad_2um_1_5
Xpad_2um_1_5_2844 li_0_0# m5_0_0# pad_2um_1_5
Xpad_2um_1_5_3567 li_0_0# m5_0_0# pad_2um_1_5
Xpad_2um_1_5_2866 li_0_0# m5_0_0# pad_2um_1_5
Xpad_2um_1_5_3589 li_0_0# m5_0_0# pad_2um_1_5
Xpad_2um_1_5_3512 li_0_0# m5_0_0# pad_2um_1_5
Xpad_2um_1_5_2811 li_0_0# m5_0_0# pad_2um_1_5
Xpad_2um_1_5_3501 li_0_0# m5_0_0# pad_2um_1_5
Xpad_2um_1_5_2800 li_0_0# m5_0_0# pad_2um_1_5
Xpad_2um_1_5_3578 li_0_0# m5_0_0# pad_2um_1_5
Xpad_2um_1_5_2855 li_0_0# m5_0_0# pad_2um_1_5
Xpad_2um_1_5_3556 li_0_0# m5_0_0# pad_2um_1_5
Xpad_2um_1_5_2833 li_0_0# m5_0_0# pad_2um_1_5
Xpad_2um_1_5_3534 li_0_0# m5_0_0# pad_2um_1_5
Xpad_2um_1_5_2899 li_0_0# m5_0_0# pad_2um_1_5
Xpad_2um_1_5_2888 li_0_0# m5_0_0# pad_2um_1_5
Xpad_2um_1_5_2877 li_0_0# m5_0_0# pad_2um_1_5
Xpad_2um_1_5_2118 li_0_0# m5_0_0# pad_2um_1_5
Xpad_2um_1_5_2129 li_0_0# m5_0_0# pad_2um_1_5
Xpad_2um_1_5_1406 li_0_0# m5_0_0# pad_2um_1_5
Xpad_2um_1_5_2107 li_0_0# m5_0_0# pad_2um_1_5
Xpad_2um_1_5_1417 li_0_0# m5_0_0# pad_2um_1_5
Xpad_2um_1_5_1439 li_0_0# m5_0_0# pad_2um_1_5
Xpad_2um_1_5_1428 li_0_0# m5_0_0# pad_2um_1_5
Xpad_2um_1_5_2674 li_0_0# m5_0_0# pad_2um_1_5
Xpad_2um_1_5_3397 li_0_0# m5_0_0# pad_2um_1_5
Xpad_2um_1_5_3320 li_0_0# m5_0_0# pad_2um_1_5
Xpad_2um_1_5_2696 li_0_0# m5_0_0# pad_2um_1_5
Xpad_2um_1_5_3342 li_0_0# m5_0_0# pad_2um_1_5
Xpad_2um_1_5_2641 li_0_0# m5_0_0# pad_2um_1_5
Xpad_2um_1_5_1940 li_0_0# m5_0_0# pad_2um_1_5
Xpad_2um_1_5_3364 li_0_0# m5_0_0# pad_2um_1_5
Xpad_2um_1_5_2663 li_0_0# m5_0_0# pad_2um_1_5
Xpad_2um_1_5_1962 li_0_0# m5_0_0# pad_2um_1_5
Xpad_2um_1_5_3386 li_0_0# m5_0_0# pad_2um_1_5
Xpad_2um_1_5_2685 li_0_0# m5_0_0# pad_2um_1_5
Xpad_2um_1_5_1951 li_0_0# m5_0_0# pad_2um_1_5
Xpad_2um_1_5_3375 li_0_0# m5_0_0# pad_2um_1_5
Xpad_2um_1_5_2652 li_0_0# m5_0_0# pad_2um_1_5
Xpad_2um_1_5_3353 li_0_0# m5_0_0# pad_2um_1_5
Xpad_2um_1_5_2630 li_0_0# m5_0_0# pad_2um_1_5
Xpad_2um_1_5_3331 li_0_0# m5_0_0# pad_2um_1_5
Xpad_2um_1_5_1973 li_0_0# m5_0_0# pad_2um_1_5
Xpad_2um_1_5_1995 li_0_0# m5_0_0# pad_2um_1_5
Xpad_2um_1_5_618 li_0_0# m5_0_0# pad_2um_1_5
Xpad_2um_1_5_629 li_0_0# m5_0_0# pad_2um_1_5
Xpad_2um_1_5_607 li_0_0# m5_0_0# pad_2um_1_5
Xpad_2um_1_5_1984 li_0_0# m5_0_0# pad_2um_1_5
Xpad_2um_1_5_1247 li_0_0# m5_0_0# pad_2um_1_5
Xpad_2um_1_5_1214 li_0_0# m5_0_0# pad_2um_1_5
Xpad_2um_1_5_1236 li_0_0# m5_0_0# pad_2um_1_5
Xpad_2um_1_5_1225 li_0_0# m5_0_0# pad_2um_1_5
Xpad_2um_1_5_1203 li_0_0# m5_0_0# pad_2um_1_5
Xpad_2um_1_5_1258 li_0_0# m5_0_0# pad_2um_1_5
Xpad_2um_1_5_1269 li_0_0# m5_0_0# pad_2um_1_5
Xpad_2um_1_5_3150 li_0_0# m5_0_0# pad_2um_1_5
Xpad_2um_1_5_3172 li_0_0# m5_0_0# pad_2um_1_5
Xpad_2um_1_5_2471 li_0_0# m5_0_0# pad_2um_1_5
Xpad_2um_1_5_1770 li_0_0# m5_0_0# pad_2um_1_5
Xpad_2um_1_5_3194 li_0_0# m5_0_0# pad_2um_1_5
Xpad_2um_1_5_2493 li_0_0# m5_0_0# pad_2um_1_5
Xpad_2um_1_5_1792 li_0_0# m5_0_0# pad_2um_1_5
Xpad_2um_1_5_3161 li_0_0# m5_0_0# pad_2um_1_5
Xpad_2um_1_5_2460 li_0_0# m5_0_0# pad_2um_1_5
Xpad_2um_1_5_1781 li_0_0# m5_0_0# pad_2um_1_5
Xpad_2um_1_5_2482 li_0_0# m5_0_0# pad_2um_1_5
Xpad_2um_1_5_3183 li_0_0# m5_0_0# pad_2um_1_5
Xpad_2um_1_5_448 li_0_0# m5_0_0# pad_2um_1_5
Xpad_2um_1_5_415 li_0_0# m5_0_0# pad_2um_1_5
Xpad_2um_1_5_437 li_0_0# m5_0_0# pad_2um_1_5
Xpad_2um_1_5_426 li_0_0# m5_0_0# pad_2um_1_5
Xpad_2um_1_5_404 li_0_0# m5_0_0# pad_2um_1_5
Xpad_2um_1_5_459 li_0_0# m5_0_0# pad_2um_1_5
Xpad_2um_1_5_971 li_0_0# m5_0_0# pad_2um_1_5
Xpad_2um_1_5_993 li_0_0# m5_0_0# pad_2um_1_5
Xpad_2um_1_5_960 li_0_0# m5_0_0# pad_2um_1_5
Xpad_2um_1_5_982 li_0_0# m5_0_0# pad_2um_1_5
Xpad_2um_1_5_1099 li_0_0# m5_0_0# pad_2um_1_5
Xpad_2um_1_5_1022 li_0_0# m5_0_0# pad_2um_1_5
Xpad_2um_1_5_1044 li_0_0# m5_0_0# pad_2um_1_5
Xpad_2um_1_5_1066 li_0_0# m5_0_0# pad_2um_1_5
Xpad_2um_1_5_1088 li_0_0# m5_0_0# pad_2um_1_5
Xpad_2um_1_5_1011 li_0_0# m5_0_0# pad_2um_1_5
Xpad_2um_1_5_1077 li_0_0# m5_0_0# pad_2um_1_5
Xpad_2um_1_5_1000 li_0_0# m5_0_0# pad_2um_1_5
Xpad_2um_1_5_1055 li_0_0# m5_0_0# pad_2um_1_5
Xpad_2um_1_5_1033 li_0_0# m5_0_0# pad_2um_1_5
Xpad_2um_1_5_2290 li_0_0# m5_0_0# pad_2um_1_5
Xpad_2um_1_5_212 li_0_0# m5_0_0# pad_2um_1_5
Xpad_2um_1_5_201 li_0_0# m5_0_0# pad_2um_1_5
Xpad_2um_1_5_8 li_0_0# m5_0_0# pad_2um_1_5
Xpad_2um_1_5_223 li_0_0# m5_0_0# pad_2um_1_5
Xpad_2um_1_5_245 li_0_0# m5_0_0# pad_2um_1_5
Xpad_2um_1_5_267 li_0_0# m5_0_0# pad_2um_1_5
Xpad_2um_1_5_289 li_0_0# m5_0_0# pad_2um_1_5
Xpad_2um_1_5_278 li_0_0# m5_0_0# pad_2um_1_5
Xpad_2um_1_5_256 li_0_0# m5_0_0# pad_2um_1_5
Xpad_2um_1_5_234 li_0_0# m5_0_0# pad_2um_1_5
Xpad_2um_1_5_790 li_0_0# m5_0_0# pad_2um_1_5
Xpad_2um_1_5_3749 li_0_0# m5_0_0# pad_2um_1_5
Xpad_2um_1_5_3716 li_0_0# m5_0_0# pad_2um_1_5
Xpad_2um_1_5_3738 li_0_0# m5_0_0# pad_2um_1_5
Xpad_2um_1_5_3727 li_0_0# m5_0_0# pad_2um_1_5
Xpad_2um_1_5_3705 li_0_0# m5_0_0# pad_2um_1_5
Xpad_2um_1_5_3524 li_0_0# m5_0_0# pad_2um_1_5
Xpad_2um_1_5_2823 li_0_0# m5_0_0# pad_2um_1_5
Xpad_2um_1_5_3546 li_0_0# m5_0_0# pad_2um_1_5
Xpad_2um_1_5_2845 li_0_0# m5_0_0# pad_2um_1_5
Xpad_2um_1_5_3568 li_0_0# m5_0_0# pad_2um_1_5
Xpad_2um_1_5_2867 li_0_0# m5_0_0# pad_2um_1_5
Xpad_2um_1_5_3513 li_0_0# m5_0_0# pad_2um_1_5
Xpad_2um_1_5_2889 li_0_0# m5_0_0# pad_2um_1_5
Xpad_2um_1_5_2812 li_0_0# m5_0_0# pad_2um_1_5
Xpad_2um_1_5_3535 li_0_0# m5_0_0# pad_2um_1_5
Xpad_2um_1_5_2801 li_0_0# m5_0_0# pad_2um_1_5
Xpad_2um_1_5_3502 li_0_0# m5_0_0# pad_2um_1_5
Xpad_2um_1_5_2878 li_0_0# m5_0_0# pad_2um_1_5
Xpad_2um_1_5_3579 li_0_0# m5_0_0# pad_2um_1_5
Xpad_2um_1_5_2856 li_0_0# m5_0_0# pad_2um_1_5
Xpad_2um_1_5_3557 li_0_0# m5_0_0# pad_2um_1_5
Xpad_2um_1_5_2834 li_0_0# m5_0_0# pad_2um_1_5
Xpad_2um_1_5_2119 li_0_0# m5_0_0# pad_2um_1_5
Xpad_2um_1_5_1418 li_0_0# m5_0_0# pad_2um_1_5
Xpad_2um_1_5_1429 li_0_0# m5_0_0# pad_2um_1_5
Xpad_2um_1_5_1407 li_0_0# m5_0_0# pad_2um_1_5
Xpad_2um_1_5_2108 li_0_0# m5_0_0# pad_2um_1_5
Xpad_2um_1_5_3321 li_0_0# m5_0_0# pad_2um_1_5
Xpad_2um_1_5_3343 li_0_0# m5_0_0# pad_2um_1_5
Xpad_2um_1_5_3310 li_0_0# m5_0_0# pad_2um_1_5
Xpad_2um_1_5_3332 li_0_0# m5_0_0# pad_2um_1_5
Xpad_2um_1_5_1974 li_0_0# m5_0_0# pad_2um_1_5
Xpad_2um_1_5_3398 li_0_0# m5_0_0# pad_2um_1_5
Xpad_2um_1_5_2697 li_0_0# m5_0_0# pad_2um_1_5
Xpad_2um_1_5_2620 li_0_0# m5_0_0# pad_2um_1_5
Xpad_2um_1_5_1996 li_0_0# m5_0_0# pad_2um_1_5
Xpad_2um_1_5_2642 li_0_0# m5_0_0# pad_2um_1_5
Xpad_2um_1_5_1941 li_0_0# m5_0_0# pad_2um_1_5
Xpad_2um_1_5_3365 li_0_0# m5_0_0# pad_2um_1_5
Xpad_2um_1_5_2664 li_0_0# m5_0_0# pad_2um_1_5
Xpad_2um_1_5_1963 li_0_0# m5_0_0# pad_2um_1_5
Xpad_2um_1_5_3387 li_0_0# m5_0_0# pad_2um_1_5
Xpad_2um_1_5_2686 li_0_0# m5_0_0# pad_2um_1_5
Xpad_2um_1_5_1985 li_0_0# m5_0_0# pad_2um_1_5
Xpad_2um_1_5_3376 li_0_0# m5_0_0# pad_2um_1_5
Xpad_2um_1_5_2675 li_0_0# m5_0_0# pad_2um_1_5
Xpad_2um_1_5_1952 li_0_0# m5_0_0# pad_2um_1_5
Xpad_2um_1_5_2653 li_0_0# m5_0_0# pad_2um_1_5
Xpad_2um_1_5_3354 li_0_0# m5_0_0# pad_2um_1_5
Xpad_2um_1_5_1930 li_0_0# m5_0_0# pad_2um_1_5
Xpad_2um_1_5_2631 li_0_0# m5_0_0# pad_2um_1_5
Xpad_2um_1_5_619 li_0_0# m5_0_0# pad_2um_1_5
Xpad_2um_1_5_608 li_0_0# m5_0_0# pad_2um_1_5
Xpad_2um_1_5_1248 li_0_0# m5_0_0# pad_2um_1_5
Xpad_2um_1_5_1215 li_0_0# m5_0_0# pad_2um_1_5
Xpad_2um_1_5_1237 li_0_0# m5_0_0# pad_2um_1_5
Xpad_2um_1_5_1226 li_0_0# m5_0_0# pad_2um_1_5
Xpad_2um_1_5_1204 li_0_0# m5_0_0# pad_2um_1_5
Xpad_2um_1_5_1259 li_0_0# m5_0_0# pad_2um_1_5
Xpad_2um_1_5_3173 li_0_0# m5_0_0# pad_2um_1_5
Xpad_2um_1_5_3140 li_0_0# m5_0_0# pad_2um_1_5
Xpad_2um_1_5_3162 li_0_0# m5_0_0# pad_2um_1_5
Xpad_2um_1_5_3151 li_0_0# m5_0_0# pad_2um_1_5
Xpad_2um_1_5_3184 li_0_0# m5_0_0# pad_2um_1_5
Xpad_2um_1_5_2472 li_0_0# m5_0_0# pad_2um_1_5
Xpad_2um_1_5_1771 li_0_0# m5_0_0# pad_2um_1_5
Xpad_2um_1_5_3195 li_0_0# m5_0_0# pad_2um_1_5
Xpad_2um_1_5_2494 li_0_0# m5_0_0# pad_2um_1_5
Xpad_2um_1_5_1793 li_0_0# m5_0_0# pad_2um_1_5
Xpad_2um_1_5_2461 li_0_0# m5_0_0# pad_2um_1_5
Xpad_2um_1_5_1760 li_0_0# m5_0_0# pad_2um_1_5
Xpad_2um_1_5_2450 li_0_0# m5_0_0# pad_2um_1_5
Xpad_2um_1_5_1782 li_0_0# m5_0_0# pad_2um_1_5
Xpad_2um_1_5_2483 li_0_0# m5_0_0# pad_2um_1_5
Xpad_2um_1_5_449 li_0_0# m5_0_0# pad_2um_1_5
Xpad_2um_1_5_416 li_0_0# m5_0_0# pad_2um_1_5
Xpad_2um_1_5_438 li_0_0# m5_0_0# pad_2um_1_5
Xpad_2um_1_5_427 li_0_0# m5_0_0# pad_2um_1_5
Xpad_2um_1_5_405 li_0_0# m5_0_0# pad_2um_1_5
Xpad_2um_1_5_950 li_0_0# m5_0_0# pad_2um_1_5
Xpad_2um_1_5_972 li_0_0# m5_0_0# pad_2um_1_5
Xpad_2um_1_5_994 li_0_0# m5_0_0# pad_2um_1_5
Xpad_2um_1_5_961 li_0_0# m5_0_0# pad_2um_1_5
Xpad_2um_1_5_983 li_0_0# m5_0_0# pad_2um_1_5
Xpad_2um_1_5_1023 li_0_0# m5_0_0# pad_2um_1_5
Xpad_2um_1_5_1045 li_0_0# m5_0_0# pad_2um_1_5
Xpad_2um_1_5_1067 li_0_0# m5_0_0# pad_2um_1_5
Xpad_2um_1_5_1089 li_0_0# m5_0_0# pad_2um_1_5
Xpad_2um_1_5_1012 li_0_0# m5_0_0# pad_2um_1_5
Xpad_2um_1_5_1001 li_0_0# m5_0_0# pad_2um_1_5
Xpad_2um_1_5_1078 li_0_0# m5_0_0# pad_2um_1_5
Xpad_2um_1_5_1056 li_0_0# m5_0_0# pad_2um_1_5
Xpad_2um_1_5_1034 li_0_0# m5_0_0# pad_2um_1_5
Xpad_2um_1_5_2291 li_0_0# m5_0_0# pad_2um_1_5
Xpad_2um_1_5_2280 li_0_0# m5_0_0# pad_2um_1_5
Xpad_2um_1_5_224 li_0_0# m5_0_0# pad_2um_1_5
Xpad_2um_1_5_246 li_0_0# m5_0_0# pad_2um_1_5
Xpad_2um_1_5_1590 li_0_0# m5_0_0# pad_2um_1_5
Xpad_2um_1_5_213 li_0_0# m5_0_0# pad_2um_1_5
Xpad_2um_1_5_202 li_0_0# m5_0_0# pad_2um_1_5
Xpad_2um_1_5_9 li_0_0# m5_0_0# pad_2um_1_5
Xpad_2um_1_5_235 li_0_0# m5_0_0# pad_2um_1_5
Xpad_2um_1_5_268 li_0_0# m5_0_0# pad_2um_1_5
Xpad_2um_1_5_279 li_0_0# m5_0_0# pad_2um_1_5
Xpad_2um_1_5_257 li_0_0# m5_0_0# pad_2um_1_5
Xpad_2um_1_5_791 li_0_0# m5_0_0# pad_2um_1_5
Xpad_2um_1_5_780 li_0_0# m5_0_0# pad_2um_1_5
Xpad_2um_1_5_3717 li_0_0# m5_0_0# pad_2um_1_5
Xpad_2um_1_5_3739 li_0_0# m5_0_0# pad_2um_1_5
Xpad_2um_1_5_3728 li_0_0# m5_0_0# pad_2um_1_5
Xpad_2um_1_5_3706 li_0_0# m5_0_0# pad_2um_1_5
Xpad_2um_1_5_3514 li_0_0# m5_0_0# pad_2um_1_5
Xpad_2um_1_5_3525 li_0_0# m5_0_0# pad_2um_1_5
Xpad_2um_1_5_3503 li_0_0# m5_0_0# pad_2um_1_5
Xpad_2um_1_5_2824 li_0_0# m5_0_0# pad_2um_1_5
Xpad_2um_1_5_3547 li_0_0# m5_0_0# pad_2um_1_5
Xpad_2um_1_5_2846 li_0_0# m5_0_0# pad_2um_1_5
Xpad_2um_1_5_3569 li_0_0# m5_0_0# pad_2um_1_5
Xpad_2um_1_5_2868 li_0_0# m5_0_0# pad_2um_1_5
Xpad_2um_1_5_2813 li_0_0# m5_0_0# pad_2um_1_5
Xpad_2um_1_5_3536 li_0_0# m5_0_0# pad_2um_1_5
Xpad_2um_1_5_2835 li_0_0# m5_0_0# pad_2um_1_5
Xpad_2um_1_5_2802 li_0_0# m5_0_0# pad_2um_1_5
Xpad_2um_1_5_2879 li_0_0# m5_0_0# pad_2um_1_5
Xpad_2um_1_5_2857 li_0_0# m5_0_0# pad_2um_1_5
Xpad_2um_1_5_3558 li_0_0# m5_0_0# pad_2um_1_5
Xpad_2um_1_5_1419 li_0_0# m5_0_0# pad_2um_1_5
Xpad_2um_1_5_1408 li_0_0# m5_0_0# pad_2um_1_5
Xpad_2um_1_5_2109 li_0_0# m5_0_0# pad_2um_1_5
Xpad_2um_1_5_3322 li_0_0# m5_0_0# pad_2um_1_5
Xpad_2um_1_5_2621 li_0_0# m5_0_0# pad_2um_1_5
Xpad_2um_1_5_3344 li_0_0# m5_0_0# pad_2um_1_5
Xpad_2um_1_5_3366 li_0_0# m5_0_0# pad_2um_1_5
Xpad_2um_1_5_3311 li_0_0# m5_0_0# pad_2um_1_5
Xpad_2um_1_5_2610 li_0_0# m5_0_0# pad_2um_1_5
Xpad_2um_1_5_3300 li_0_0# m5_0_0# pad_2um_1_5
Xpad_2um_1_5_3355 li_0_0# m5_0_0# pad_2um_1_5